Version 4
SHEET 1 2952 756
WIRE 1152 -96 384 -96
WIRE 2176 -96 1408 -96
WIRE 896 0 896 -16
WIRE 1920 0 1920 -16
WIRE 272 80 272 32
WIRE 1296 80 1296 32
WIRE 896 96 896 64
WIRE 1920 96 1920 64
WIRE 384 160 384 -96
WIRE 416 160 384 160
WIRE 1408 160 1408 -96
WIRE 1440 160 1408 160
WIRE 592 176 480 176
WIRE 752 176 672 176
WIRE 848 176 752 176
WIRE 1616 176 1504 176
WIRE 1776 176 1696 176
WIRE 1872 176 1776 176
WIRE 272 192 272 160
WIRE 416 192 272 192
WIRE 1296 192 1296 160
WIRE 1440 192 1296 192
WIRE 752 208 752 176
WIRE 1776 208 1776 176
WIRE 896 240 896 192
WIRE 1152 240 1152 -96
WIRE 1152 240 896 240
WIRE 1920 240 1920 192
WIRE 2176 240 2176 -96
WIRE 2176 240 1920 240
WIRE 272 256 272 192
WIRE 1296 256 1296 192
WIRE 896 272 896 240
WIRE 1920 272 1920 240
WIRE 752 320 752 288
WIRE 1776 320 1776 288
WIRE 896 400 896 352
WIRE 1920 400 1920 352
WIRE 896 576 896 480
WIRE 1920 576 1920 480
FLAG -112 224 5V
FLAG -112 304 0
FLAG 448 208 0
FLAG 448 144 5V
FLAG 896 576 0
FLAG 272 336 0
FLAG -208 304 0
FLAG 896 -16 5V
FLAG -208 224 SIGNAL
FLAG 272 32 SIGNAL
FLAG 1472 208 0
FLAG 1472 144 5V
FLAG 1920 576 0
FLAG 1296 336 0
FLAG 1920 -16 5V
FLAG 1296 32 SIGNAL
FLAG 752 320 0
FLAG 1776 320 0
SYMBOL OpAmps\\OP07 448 112 R0
SYMATTR InstName U1
SYMBOL voltage -112 208 R0
WINDOW 123 0 0 Left 0
WINDOW 39 0 0 Left 0
SYMATTR InstName V2
SYMATTR Value 5
SYMBOL res 688 160 R90
WINDOW 0 0 56 VBottom 2
WINDOW 3 32 56 VTop 2
SYMATTR InstName R1
SYMATTR Value 100
SYMBOL res 880 256 R0
SYMATTR InstName R3
SYMATTR Value 0.1
SYMBOL res 256 64 R0
SYMATTR InstName R2
SYMATTR Value 10k
SYMBOL res 256 240 R0
SYMATTR InstName R4
SYMATTR Value 680
SYMBOL LED 880 0 R0
SYMATTR InstName D1
SYMATTR Value LXHL-BW02
SYMATTR Description Diode
SYMATTR Type diode
SYMBOL res 880 384 R0
SYMATTR InstName R5
SYMATTR Value 0.42
SYMBOL nmos 848 96 R0
SYMATTR InstName M3
SYMATTR Value RTL035N03
SYMBOL voltage -208 208 M0
WINDOW 123 0 0 Left 0
WINDOW 39 0 0 Left 0
SYMATTR InstName V5
SYMATTR Value PWL file=C:\Users\mihal\development\PWLGenerator\demofile2.txt
SYMBOL res 736 192 R0
SYMATTR InstName R11
SYMATTR Value 10k
SYMBOL OpAmps\\OP07 1472 112 R0
SYMATTR InstName U2
SYMBOL res 1712 160 R90
WINDOW 0 0 56 VBottom 2
WINDOW 3 32 56 VTop 2
SYMATTR InstName R6
SYMATTR Value 100
SYMBOL res 1904 256 R0
SYMATTR InstName R7
SYMATTR Value 0.1
SYMBOL res 1280 64 R0
SYMATTR InstName R8
SYMATTR Value 10k
SYMBOL res 1280 240 R0
SYMATTR InstName R9
SYMATTR Value 300
SYMBOL LED 1904 0 R0
SYMATTR InstName D2
SYMATTR Value LXHL-BW02
SYMATTR Description Diode
SYMATTR Type diode
SYMBOL res 1904 384 R0
SYMATTR InstName R10
SYMATTR Value 0.076
SYMBOL nmos 1872 96 R0
SYMATTR InstName M1
SYMATTR Value RTL035N03
SYMBOL res 1760 192 R0
SYMATTR InstName R13
SYMATTR Value 10k
TEXT -144 328 Left 2 !.tran 30
TEXT 480 -224 Left 2 ;980 nm Pump Laser
TEXT 1672 -224 Left 2 ;1480 nm Pump Laser
