Version 4
SHEET 1 1160 680
WIRE 528 -96 384 -96
WIRE 592 -96 528 -96
WIRE 1040 -96 672 -96
WIRE 912 -16 784 -16
WIRE 784 0 784 -16
WIRE 528 64 528 -96
WIRE 784 96 784 64
WIRE 912 112 912 -16
WIRE 384 160 384 -96
WIRE 416 160 384 160
WIRE 528 176 528 128
WIRE 528 176 480 176
WIRE 592 176 528 176
WIRE 736 176 672 176
WIRE 416 192 0 192
WIRE 0 224 0 192
WIRE 784 272 784 192
WIRE 912 272 912 192
WIRE 976 272 912 272
WIRE 1040 272 1040 -96
WIRE 1040 272 976 272
WIRE 736 352 624 352
WIRE 624 416 624 352
WIRE 624 528 624 496
WIRE 784 528 784 368
WIRE 784 528 624 528
WIRE 976 528 976 272
WIRE 976 528 784 528
FLAG -112 224 5V
FLAG -112 304 0
FLAG 448 208 0
FLAG 448 144 5V
FLAG 0 304 0
SYMBOL voltage 0 208 R0
WINDOW 123 0 0 Left 0
WINDOW 39 0 0 Left 0
SYMATTR InstName V1
SYMATTR Value PWL file=D:\development\PWLGenerator\demofile2.txt
SYMBOL OpAmps\\OP07 448 112 R0
SYMATTR InstName U1
SYMBOL voltage -112 208 R0
WINDOW 123 0 0 Left 0
WINDOW 39 0 0 Left 0
SYMATTR InstName V2
SYMATTR Value 5
SYMBOL res 688 160 R90
WINDOW 0 0 56 VBottom 2
WINDOW 3 32 56 VTop 2
SYMATTR InstName R1
SYMATTR Value 100
SYMBOL res 688 -112 R90
WINDOW 0 0 56 VBottom 2
WINDOW 3 32 56 VTop 2
SYMATTR InstName R2
SYMATTR Value 10k
SYMBOL nmos 736 96 R0
SYMATTR InstName M1
SYMATTR Value Si7336ADP
SYMBOL voltage 912 96 R0
WINDOW 123 0 0 Left 0
WINDOW 39 0 0 Left 0
SYMATTR InstName V3
SYMATTR Value 5
SYMBOL LED 768 0 R0
SYMATTR InstName D1
SYMATTR Value LXK2-PW14
SYMBOL cap 512 64 R0
SYMATTR InstName C1
SYMATTR Value 100n
SYMBOL nmos 736 272 R0
SYMATTR InstName M2
SYMATTR Value Si7336ADP
SYMBOL voltage 624 400 M0
WINDOW 123 0 0 Left 0
WINDOW 39 0 0 Left 0
SYMATTR InstName V4
SYMATTR Value PULSE(0 5 0 1 0 35)
TEXT -146 328 Left 2 !.tran 30
