Version 4
SHEET 1 884 680
WIRE 352 80 144 80
WIRE 448 80 352 80
WIRE 560 80 448 80
WIRE 688 80 560 80
WIRE 816 80 768 80
WIRE 336 112 272 112
WIRE 144 128 144 80
WIRE 272 128 272 112
WIRE 352 128 352 80
WIRE 448 128 448 80
WIRE 560 128 560 80
WIRE 816 128 816 80
WIRE 336 144 336 112
WIRE 272 224 272 208
WIRE 336 224 336 176
WIRE 336 224 272 224
WIRE 144 256 144 208
WIRE 352 256 352 192
WIRE 352 256 144 256
WIRE 448 256 448 192
WIRE 448 256 352 256
WIRE 480 256 448 256
WIRE 560 256 560 192
WIRE 560 256 480 256
WIRE 816 256 816 208
WIRE 816 256 560 256
FLAG 480 256 0
SYMBOL voltage 144 112 M0
WINDOW 123 0 0 Left 0
WINDOW 39 0 0 Left 0
SYMATTR InstName V1
SYMATTR Value PULSE(0 500 1 20m 20m 1 3)
SYMBOL ind 672 96 R270
WINDOW 0 32 56 VTop 2
WINDOW 3 5 56 VBottom 2
SYMATTR InstName L1
SYMATTR Value 220m
SYMBOL cap 544 128 R0
SYMATTR InstName C1
SYMATTR Value 100n
SYMBOL SpecialFunctions\\varistor 368 96 R0
SYMATTR InstName A1
SYMBOL TVSdiode 432 128 R0
SYMATTR InstName D1
SYMATTR Value SMCJ33A
SYMBOL voltage 272 112 R0
WINDOW 123 0 0 Left 0
WINDOW 39 0 0 Left 0
SYMATTR InstName V2
SYMATTR Value 30
SYMBOL res 800 112 R0
SYMATTR InstName R1
SYMATTR Value 100
TEXT -222 266 Left 2 !.tran 5
